*HEADING
chassis FEA
*NODE
1,1.03606325e+02,-9.33008335e+01,0.00000000e+00
2,9.33008335e+01,-1.03606325e+02,0.00000000e+00
3,2.36564334e+01,-8.97012583e+00,0.00000000e+00
4,2.36564334e+01,8.97012583e+00,0.00000000e+00
5,1.03606325e+02,9.33008335e+01,0.00000000e+00
6,9.33008335e+01,1.03606325e+02,0.00000000e+00
7,8.97012583e+00,2.36564334e+01,0.00000000e+00
8,-8.97012583e+00,2.36564334e+01,0.00000000e+00
9,-9.33008335e+01,1.03606325e+02,0.00000000e+00
10,-1.03606325e+02,9.33008335e+01,0.00000000e+00
11,-2.36564334e+01,8.97012583e+00,0.00000000e+00
12,-2.36564334e+01,-8.97012583e+00,0.00000000e+00
13,-1.03606325e+02,-9.33008335e+01,0.00000000e+00
14,-9.33008335e+01,-1.03606325e+02,0.00000000e+00
15,-8.97012583e+00,-2.36564334e+01,0.00000000e+00
16,8.97012583e+00,-2.36564334e+01,0.00000000e+00
17,9.96660172e+01,-1.14066017e+02,0.00000000e+00
18,-9.64660172e+01,-1.14066017e+02,0.00000000e+00
19,-1.12466017e+02,-1.14066017e+02,0.00000000e+00
20,-1.01566017e+02,-1.06066017e+02,0.00000000e+00
** ... 9611 like lines cut
*ELEMENT,TYPE=C3D4,ELSET=EALL
1,7965,8009,6179,8305
2,4620,8347,3141,8348
3,7962,9068,8136,9386
4,4493,7155,7156,8458
5,1675,8265,1673,8806
6,4440,8458,3192,8861
7,1857,1856,8087,9023
8,8395,8590,4236,9044
9,4114,8075,1014,8733
10,8263,8996,8102,9392
11,7299,1424,8114,9527
12,2336,8162,8025,8196
13,1439,6896,8049,8105
14,4465,3241,8389,8549
15,6854,8586,8487,8605
16,8372,8827,8757,9485
17,6627,1345,8109,8293
18,7392,8619,5164,8950
19,5376,8818,1308,9026
20,6004,8095,8161,9286
** ... 33324 like lines cut
*NSET,NSET=NFIX
22,23,28,34,62,63,68,74,616,617,618,619
620,621,622,623,624,625,626,627,657,658,659,660
661,662,698,699,700,701,702,703,1317,1318,1319,1320
1321,1322,1323,1324,1325,1326,1327,1328,1329,1330,1364,1365
1366,1367,1368,1369,1370,1411,1412,1413,1414,1415,1416,1417
1469,1470,1477,1479,1519,1521,1569,1571,1599,1600,1602,1603
1604,1605,1618,1619,1620,1621,1660,1661,1662,1663,1664,1665
1729,1730,1741,1798,1840,1842,1934,1948,1949,2059,2061,2065
2120,2342,2380,2387,2390,2773,2786,2821,2822,2823,2836,2839
2894,3030,3100,3427,3428,3430,3431,3433,3440,3539,3572,3577
3646,3650,3683,3700,3716,3750,3755,3757,3758,3760,3767,3822
3823,3825,3827,3832,3833,3838,3839,4032,4179,4240,5400,5401
5402,5403,5404,5405,5406,5407,5408,5409,5410,5411,5412,5413
5414,5415,5416,5417,5418,5419,5420,5421,5422,5423,5424,5425
5426,5427,5481,5482,5483,5484,5485,5486,5487,5488,5489,5490
5491,5492,5493,5494,5563,5564,5565,5566,5567,5568,5569,5570
5571,5572,5573,5574,5575,5576,5862,5863,5888,5896,5897,5917
5935,5941,6010,6011,6014,6027,6028,6029,6034,6106,6107,6136
6137,6175,6237,6507,6592,6594,6696,6717,6786,6799,6805,6938
7320,7322,7326,7327,7360,7396,7424,7685,7687,7817,7883,7905
** ... 7 like lines cut
*NSET,NSET=NLOAD1
29,31,39,69,71,79,663,664,665,668,669,670
671,672,675,676,677,678,679,680,681,682,683,684
685,688,689,690,691,733,736,737,738,1371,1372,1373
1374,1377,1379,1380,1381,1382,1385,1386,1387,1388,1389,1390
1391,1392,1393,1394,1395,1396,1400,1401,1402,1403,1451,1452
1455,1456,1457,1639,1641,1881,1882,1887,1888,1899,1901,1926
1936,1953,2003,2009,2017,2069,2107,2108,2132,2136,2137,2233
2308,2313,2315,2344,2410,2436,2447,2455,2469,2548,2564,2602
2603,2611,2612,2623,2624,2658,2687,2699,2700,2747,2753,2754
2805,2819,2833,2834,2835,2860,2866,2870,2897,2903,2922,2944
2961,3004,3356,3471,3488,3511,3523,3524,3609,3619,3631,3648
3685,3691,3692,3703,3704,3705,3773,3782,3783,3784,3811,3818
3821,3862,3866,3876,3885,3894,3925,3933,3938,3948,3950,3953
3963,3968,3989,3992,3999,4012,4045,4048,4049,4057,4079,4084
4088,4094,4107,4117,4120,4125,4147,4151,4176,4178,4183,4193
4212,4214,4216,4242,5495,5499,5500,5501,5504,5506,5507,5508
5509,5510,5512,5513,5514,5517,5518,5519,5520,5521,5523,5524
5525,5526,5527,5528,5529,5530,5531,5532,5533,5534,5536,5537
5538,5539,5540,5542,5543,5544,5546,5548,5631,5633,5635,5636
5637,5639,5641,5642,5668,5669,5681,5686,5826,5827,5828,5874
** ... 14 like lines cut
*NSET,NSET=NLOAD2
36,37,38,76,77,78,704,705,706,707,710,711
712,715,716,717,718,719,720,721,722,723,724,725
726,727,730,731,732,741,742,743,744,1419,1420,1421
1422,1425,1426,1427,1428,1431,1432,1433,1434,1435,1436,1437
1438,1439,1440,1441,1442,1443,1444,1445,1448,1449,1450,1461
1462,1463,1464,1642,1644,1873,1874,1875,1885,1886,1896,1898
1941,1959,1976,2001,2036,2110,2111,2128,2129,2144,2145,2225
2263,2318,2320,2338,2339,2357,2391,2398,2442,2445,2457,2502
2555,2607,2608,2625,2744,2750,2760,2761,2770,2772,2777,2800
2801,2813,2814,2842,2843,2868,2884,2889,2892,2907,2915,2924
3006,3035,3149,3376,3497,3514,3531,3551,3607,3629,3635,3641
3655,3666,3680,3695,3696,3714,3715,3718,3719,3775,3793,3799
3800,3848,3849,3851,3880,3908,3911,3932,3940,3945,3946,3970
3975,3984,3994,4007,4018,4027,4044,4055,4062,4092,4098,4104
4133,4137,4148,4198,4204,4208,4218,4234,4239,5577,5578,5580
5581,5582,5585,5586,5587,5588,5589,5591,5595,5596,5597,5598
5602,5603,5604,5605,5606,5607,5608,5609,5610,5611,5612,5613
5614,5615,5616,5618,5619,5622,5623,5624,5625,5628,5629,5644
5645,5646,5647,5648,5650,5651,5652,5654,5656,5667,5672,5687
5761,5829,5830,5831,5872,5873,5933,5934,5939,5940,5942,5943
** ... 13 like lines cut
*NSET,NSET=NLOAD3
19,20,33,59,60,73,587,588,589,590,593,594
595,598,599,600,601,602,603,604,605,606,607,608
609,612,613,614,615,692,695,696,697,1285,1286,1287
1288,1291,1292,1293,1294,1297,1298,1299,1300,1301,1302,1303
1304,1305,1306,1307,1308,1309,1313,1314,1315,1316,1404,1405
1408,1409,1410,1643,1646,1876,1877,1878,1889,1890,1894,1897
1942,1958,1975,2002,2109,2113,2130,2131,2142,2143,2226,2262
2317,2319,2337,2340,2358,2392,2397,2441,2446,2456,2503,2554
2609,2610,2626,2745,2749,2758,2759,2769,2771,2776,2802,2803
2811,2812,2840,2841,2869,2885,2888,2891,2908,2916,2923,3007
3036,3133,3150,3375,3498,3513,3530,3550,3591,3606,3630,3634
3640,3656,3679,3693,3694,3720,3721,3774,3794,3797,3798,3846
3847,3850,3881,3909,3910,3931,3941,3943,3944,3967,3971,3976
3983,3995,4006,4019,4026,4043,4054,4061,4093,4097,4105,4113
4114,4132,4138,4149,4199,4203,4209,4219,4233,5349,5350,5352
5353,5354,5356,5358,5359,5360,5362,5365,5367,5368,5371,5372
5373,5374,5375,5376,5377,5378,5379,5380,5381,5382,5383,5384
5385,5386,5388,5389,5390,5391,5393,5394,5395,5396,5399,5550
5551,5554,5555,5556,5560,5561,5562,5666,5670,5682,5683,5823
5824,5825,5876,5877,5968,5969,5970,5971,5972,5973,5974,5975
** ... 14 like lines cut
*NSET,NSET=NLOAD4
17,25,27,57,65,67,581,582,583,586,628,629
630,631,634,635,636,637,638,639,640,641,642,643
644,647,648,649,650,651,654,655,656,1277,1278,1279
1280,1283,1332,1333,1334,1335,1338,1339,1340,1341,1342,1343
1344,1345,1346,1347,1348,1349,1353,1354,1355,1356,1357,1358
1361,1362,1363,1640,1645,1879,1880,1891,1892,1895,1900,1927
1937,1952,2004,2008,2018,2070,2106,2112,2133,2134,2135,2234
2307,2312,2316,2343,2411,2437,2448,2454,2470,2549,2565,2604
2605,2613,2614,2621,2622,2659,2688,2701,2702,2746,2755,2756
2804,2820,2830,2831,2832,2861,2867,2871,2896,2902,2921,2943
2962,3005,3355,3472,3489,3512,3525,3526,3608,3620,3632,3647
3686,3687,3689,3690,3701,3702,3706,3772,3779,3780,3781,3810
3819,3820,3864,3867,3877,3884,3895,3924,3934,3939,3949,3951
3954,3964,3969,3990,3993,4000,4011,4046,4050,4056,4078,4083
4089,4095,4108,4116,4121,4124,4146,4150,4175,4177,4181,4194
4211,4215,4217,4243,5335,5337,5340,5341,5343,5345,5347,5348
5428,5429,5431,5432,5433,5435,5437,5438,5439,5441,5442,5443
5444,5445,5446,5447,5448,5449,5450,5451,5452,5454,5455,5456
5457,5458,5460,5461,5462,5464,5466,5468,5471,5472,5473,5474
5478,5479,5480,5665,5671,5684,5685,5820,5821,5822,5878,5879
** ... 14 like lines cut
*MATERIAL,NAME=PETG
*ELASTIC
2100.0,0.360
*SOLID SECTION,ELSET=EALL,MATERIAL=PETG
*BOUNDARY
NFIX,1,3,0.0
*STEP
*STATIC
*CLOAD
29,3,0.024570
31,3,0.024570
39,3,0.024570
69,3,0.024570
71,3,0.024570
79,3,0.024570
663,3,0.024570
664,3,0.024570
665,3,0.024570
668,3,0.024570
669,3,0.024570
670,3,0.024570
671,3,0.024570
672,3,0.024570
675,3,0.024570
676,3,0.024570
677,3,0.024570
678,3,0.024570
679,3,0.024570
680,3,0.024570
** ... 1583 like lines cut
*NODE FILE
U
*EL FILE
S
*END STEP
