*HEADING
chassis FEA
*NODE
1,1.03606325e+02,-9.33008335e+01,0.00000000e+00
2,9.33008335e+01,-1.03606325e+02,0.00000000e+00
3,2.36564334e+01,-8.97012583e+00,0.00000000e+00
4,2.36564334e+01,8.97012583e+00,0.00000000e+00
5,1.03606325e+02,9.33008335e+01,0.00000000e+00
6,9.33008335e+01,1.03606325e+02,0.00000000e+00
7,8.97012583e+00,2.36564334e+01,0.00000000e+00
8,-8.97012583e+00,2.36564334e+01,0.00000000e+00
9,-9.33008335e+01,1.03606325e+02,0.00000000e+00
10,-1.03606325e+02,9.33008335e+01,0.00000000e+00
11,-2.36564334e+01,8.97012583e+00,0.00000000e+00
12,-2.36564334e+01,-8.97012583e+00,0.00000000e+00
13,-1.03606325e+02,-9.33008335e+01,0.00000000e+00
14,-9.33008335e+01,-1.03606325e+02,0.00000000e+00
15,-8.97012583e+00,-2.36564334e+01,0.00000000e+00
16,8.97012583e+00,-2.36564334e+01,0.00000000e+00
17,9.96660172e+01,-1.14066017e+02,0.00000000e+00
18,-9.64660172e+01,-1.14066017e+02,0.00000000e+00
19,-1.12466017e+02,-1.14066017e+02,0.00000000e+00
20,-1.01566017e+02,-1.06066017e+02,0.00000000e+00
** ... 15201 like lines cut
*ELEMENT,TYPE=C3D4,ELSET=EALL
1,11028,15010,11093,15193
2,7036,15011,4411,15157
3,4411,7036,3797,15011
4,9458,15067,15050,15118
5,5976,15016,6943,15035
6,15050,15067,9458,15197
7,10998,10999,7046,15010
8,6120,6763,916,6107
9,5463,15081,11035,15085
10,5463,11035,6711,15085
11,496,883,7100,6739
12,10313,15091,10243,15098
13,6898,6891,7201,6902
14,6753,6749,15022,15218
15,5577,15112,15025,15203
16,9421,15048,6959,15072
17,4411,3797,5993,15011
18,6739,7100,496,6741
19,5976,6943,6945,15035
20,5211,15078,6112,15086
** ... 45108 like lines cut
*NSET,NSET=NFIX
22,23,28,34,78,79,84,90,760,761,762,763
764,765,766,767,768,769,770,771,801,802,803,804
805,806,842,843,844,845,846,847,1457,1458,1459,1460
1461,1462,1463,1464,1465,1466,1467,1468,1502,1503,1504,1505
1506,1507,1548,1549,1550,1551,1552,1553,1711,1712,1713,1806
1807,1808,1913,1914,1915,2008,2009,2010,2115,2116,2117,2210
2211,2212,2317,2318,2319,2412,2413,2414,2917,2918,2919,2974
2975,2976,3031,3032,3033,3088,3089,3090,3145,3146,3147,3202
3203,3204,3259,3260,3261,3316,3317,3318,3325,3326,3333,3335
3375,3377,3425,3427,3455,3456,3458,3459,3460,3461,3474,3475
3476,3477,3516,3517,3518,3519,3520,3521,3585,3586,3597,3654
3696,3698,3790,3804,3805,3915,3917,3921,3976,4198,4236,4243
4246,4629,4642,4677,4678,4679,4692,4695,4750,4886,4956,5283
5284,5286,5287,5289,5296,5395,5428,5433,5502,5506,5539,5556
5572,5606,5611,5613,5614,5616,5623,5678,5679,5681,5683,5688
5689,5694,5695,5888,6035,6096,6837,6838,6839,6840,6841,6842
6843,6844,6845,6846,6847,6848,6849,6850,6918,6919,6920,6921
6922,6923,6924,7008,7009,7010,7011,7012,7013,7014,7781,7782
7803,7804,8032,8033,8063,8064,8534,8535,8564,8565,8714,8715
8784,8785,8808,8829,8830,8851,8852,8853,9080,9081,11772,11776
** ... 17 like lines cut
*NSET,NSET=NLOAD1
29,31,39,85,87,95,137,138,139,142,807,808
809,812,813,814,815,816,819,820,821,822,823,824
825,826,827,828,829,832,833,834,835,877,880,881
882,1508,1509,1510,1513,1514,1515,1516,1517,1518,1522,1523
1524,1525,1526,1527,1528,1529,1530,1531,1532,1533,1536,1537
1538,1539,1587,1590,1591,1592,1593,3495,3497,3737,3738,3743
3744,3755,3757,3782,3792,3809,3859,3865,3873,3925,3963,3964
3988,3992,3993,4089,4164,4169,4171,4200,4266,4292,4303,4311
4325,4404,4420,4458,4459,4467,4468,4479,4480,4514,4543,4555
4556,4603,4609,4610,4661,4675,4689,4690,4691,4716,4722,4726
4753,4759,4778,4800,4817,4860,5212,5327,5344,5367,5379,5380
5465,5475,5487,5504,5541,5547,5548,5559,5560,5561,5629,5638
5639,5640,5667,5674,5677,5718,5722,5732,5741,5750,5781,5789
5794,5804,5806,5809,5819,5824,5845,5848,5855,5868,5901,5904
5905,5913,5935,5940,5944,5950,5963,5973,5976,5981,6003,6007
6032,6034,6039,6049,6068,6070,6072,6098,6926,6928,6935,6936
6937,6938,6939,6940,6941,6942,6943,6944,6945,6946,6947,6948
6949,6950,6953,6955,6956,6957,6958,6959,6960,6961,6962,6963
6964,6965,6966,6967,6968,6969,6970,6971,6972,6973,6974,6975
6976,6977,6978,6979,6980,6981,6982,6984,6987,6988,6989,6990
** ... 15 like lines cut
*NSET,NSET=NLOAD2
36,37,38,92,93,94,169,170,171,174,848,849
850,851,854,855,856,859,860,861,862,863,864,865
866,867,868,869,870,871,874,875,876,885,886,887
888,1554,1555,1556,1557,1561,1562,1563,1566,1567,1568,1569
1570,1571,1572,1573,1574,1575,1576,1577,1578,1579,1580,1583
1584,1585,1586,1596,1597,1598,1599,3498,3500,3729,3730,3731
3741,3742,3752,3754,3797,3815,3832,3857,3892,3966,3967,3984
3985,4000,4001,4081,4119,4174,4176,4194,4195,4213,4247,4254
4298,4301,4313,4358,4411,4463,4464,4481,4600,4606,4616,4617
4626,4628,4633,4656,4657,4669,4670,4698,4699,4724,4740,4745
4748,4763,4771,4780,4862,4891,5005,5232,5353,5370,5387,5407
5463,5485,5491,5497,5511,5522,5536,5551,5552,5570,5571,5574
5575,5631,5649,5655,5656,5704,5705,5707,5736,5764,5767,5788
5796,5801,5802,5826,5831,5840,5850,5863,5874,5883,5900,5911
5918,5948,5954,5960,5989,5993,6004,6054,6060,6064,6074,6090
6095,7015,7016,7017,7018,7019,7020,7021,7022,7023,7024,7025
7028,7030,7032,7034,7035,7036,7037,7038,7044,7046,7047,7048
7049,7050,7051,7052,7053,7054,7055,7056,7057,7058,7059,7060
7061,7062,7063,7064,7065,7066,7067,7069,7071,7072,7077,7078
7079,7080,7097,7098,7099,7101,7104,7105,7106,7107,7108,7109
** ... 15 like lines cut
*NSET,NSET=NLOAD3
19,20,33,75,76,89,153,154,155,158,731,732
733,734,737,738,739,742,743,744,745,746,747,748
749,750,751,752,753,756,757,758,759,836,839,840
841,1424,1425,1426,1427,1431,1432,1433,1436,1437,1438,1439
1440,1441,1442,1443,1444,1445,1446,1447,1448,1449,1452,1453
1454,1455,1541,1544,1545,1546,1547,3499,3502,3732,3733,3734
3745,3746,3750,3753,3798,3814,3831,3858,3965,3969,3986,3987
3998,3999,4082,4118,4173,4175,4193,4196,4214,4248,4253,4297
4302,4312,4359,4410,4465,4466,4482,4601,4605,4614,4615,4625
4627,4632,4658,4659,4667,4668,4696,4697,4725,4741,4744,4747
4764,4772,4779,4863,4892,4989,5006,5231,5354,5369,5386,5406
5447,5462,5486,5490,5496,5512,5535,5549,5550,5576,5577,5630
5650,5653,5654,5702,5703,5706,5737,5765,5766,5787,5797,5799
5800,5823,5827,5832,5839,5851,5862,5875,5882,5899,5910,5917
5949,5953,5961,5969,5970,5988,5994,6005,6055,6059,6065,6075
6089,6769,6770,6771,6772,6773,6774,6775,6776,6777,6778,6779
6782,6784,6787,6788,6790,6791,6792,6798,6799,6800,6801,6802
6803,6804,6805,6806,6807,6808,6809,6810,6811,6812,6813,6814
6815,6816,6817,6818,6819,6820,6821,6822,6823,6824,6825,6827
6830,6831,6832,6833,6834,6835,6836,6995,6997,6998,7003,7004
** ... 15 like lines cut
*NSET,NSET=NLOAD4
17,25,27,73,81,83,97,98,99,102,725,726
727,730,772,773,774,775,778,779,780,781,782,783
784,785,786,787,788,791,792,793,794,795,798,799
800,1417,1418,1419,1422,1423,1469,1470,1471,1472,1476,1477
1478,1479,1480,1481,1482,1483,1484,1485,1486,1487,1490,1491
1492,1493,1495,1498,1499,1500,1501,3496,3501,3735,3736,3747
3748,3751,3756,3783,3793,3808,3860,3864,3874,3926,3962,3968
3989,3990,3991,4090,4163,4168,4172,4199,4267,4293,4304,4310
4326,4405,4421,4460,4461,4469,4470,4477,4478,4515,4544,4557
4558,4602,4611,4612,4660,4676,4686,4687,4688,4717,4723,4727
4752,4758,4777,4799,4818,4861,5211,5328,5345,5368,5381,5382
5464,5476,5488,5503,5542,5543,5545,5546,5557,5558,5562,5628
5635,5636,5637,5666,5675,5676,5720,5723,5733,5740,5751,5780
5790,5795,5805,5807,5810,5820,5825,5846,5849,5856,5867,5902
5906,5912,5934,5939,5945,5951,5964,5972,5977,5980,6002,6006
6031,6033,6037,6050,6067,6071,6073,6099,6757,6758,6760,6761
6762,6766,6851,6852,6853,6854,6855,6856,6857,6858,6859,6860
6861,6864,6866,6867,6868,6869,6870,6871,6872,6873,6874,6875
6876,6877,6878,6879,6880,6881,6882,6883,6884,6885,6886,6887
6888,6889,6890,6891,6892,6894,6897,6898,6899,6900,6901,6902
** ... 15 like lines cut
*MATERIAL,NAME=PETG
*ELASTIC
2100.0,0.360
*SOLID SECTION,ELSET=EALL,MATERIAL=PETG
*BOUNDARY
NFIX,1,3,0.0
*STEP
*STATIC
*CLOAD
29,3,0.023866
31,3,0.023866
39,3,0.023866
85,3,0.023866
87,3,0.023866
95,3,0.023866
137,3,0.023866
138,3,0.023866
139,3,0.023866
142,3,0.023866
807,3,0.023866
808,3,0.023866
809,3,0.023866
812,3,0.023866
813,3,0.023866
814,3,0.023866
815,3,0.023866
816,3,0.023866
819,3,0.023866
820,3,0.023866
** ... 1642 like lines cut
*NODE FILE
U
*EL FILE
S
*END STEP
